data/network-model/loads.txt
New Load.LOAD1 Phases=1 Bus1=34.1 kV=0.23 kW=0.387 PF=0.95 vminpu=0.6 vmaxpu=2 yearly=Shape_1
New Load.LOAD2 Phases=1 Bus1=47.2 kV=0.23 kW=0.694 PF=0.95 vminpu=0.6 vmaxpu=2 yearly=Shape_2
New Load.LOAD3 Phases=1 Bus1=70.1 kV=0.23 kW=0.054 PF=0.95 vminpu=0.6 vmaxpu=2 yearly=Shape_3
New Load.LOAD4 Phases=1 Bus1=73.1 kV=0.23 kW=0.286 PF=0.95 vminpu=0.6 vmaxpu=2 yearly=Shape_4
New Load.LOAD5 Phases=1 Bus1=74.1 kV=0.23 kW=0.035 PF=0.95 vminpu=0.6 vmaxpu=2 yearly=Shape_5
New Load.LOAD6 Phases=1 Bus1=83.2 kV=0.23 kW=0.277 PF=0.95 vminpu=0.6 vmaxpu=2 yearly=Shape_6
New Load.LOAD7 Phases=1 Bus1=178.2 kV=0.23 kW=2.606 PF=0.95 vminpu=0.6 vmaxpu=2 yearly=Shape_7
New Load.LOAD8 Phases=1 Bus1=208.3 kV=0.23 kW=0.55 PF=0.95 vminpu=0.6 vmaxpu=2 yearly=Shape_8
New Load.LOAD9 Phases=1 Bus1=225.1 kV=0.23 kW=4.888 PF=0.95 vminpu=0.6 vmaxpu=2 yearly=Shape_9
New Load.LOAD10 Phases=1 Bus1=248.2 kV=0.23 kW=0.057 PF=0.95 vminpu=0.6 vmaxpu=2 yearly=Shape_10
New Load.LOAD11 Phases=1 Bus1=249.2 kV=0.23 kW=0.347 PF=0.95 vminpu=0.6 vmaxpu=2 yearly=Shape_11
New Load.LOAD12 Phases=1 Bus1=264.3 kV=0.23 kW=0.142 PF=0.95 vminpu=0.6 vmaxpu=2 yearly=Shape_12
New Load.LOAD13 Phases=1 Bus1=276.2 kV=0.23 kW=0.56 PF=0.95 vminpu=0.6 vmaxpu=2 yearly=Shape_13
New Load.LOAD14 Phases=1 Bus1=289.1 kV=0.23 kW=0.171 PF=0.95 vminpu=0.6 vmaxpu=2 yearly=Shape_14
New Load.LOAD15 Phases=1 Bus1=314.2 kV=0.23 kW=0.223 PF=0.95 vminpu=0.6 vmaxpu=2 yearly=Shape_15
New Load.LOAD16 Phases=1 Bus1=320.3 kV=0.23 kW=0.55 PF=0.95 vminpu=0.6 vmaxpu=2 yearly=Shape_16
New Load.LOAD17 Phases=1 Bus1=327.3 kV=0.23 kW=0.534 PF=0.95 vminpu=0.6 vmaxpu=2 yearly=Shape_17
New Load.LOAD18 Phases=1 Bus1=337.3 kV=0.23 kW=0.21 PF=0.95 vminpu=0.6 vmaxpu=2 yearly=Shape_18
New Load.LOAD19 Phases=1 Bus1=342.3 kV=0.23 kW=0.514 PF=0.95 vminpu=0.6 vmaxpu=2 yearly=Shape_19
New Load.LOAD20 Phases=1 Bus1=349.1 kV=0.23 kW=0.485 PF=0.95 vminpu=0.6 vmaxpu=2 yearly=Shape_20
New Load.LOAD21 Phases=1 Bus1=387.1 kV=0.23 kW=0.435 PF=0.95 vminpu=0.6 vmaxpu=2 yearly=Shape_21
New Load.LOAD22 Phases=1 Bus1=388.1 kV=0.23 kW=0.054 PF=0.95 vminpu=0.6 vmaxpu=2 yearly=Shape_22
New Load.LOAD23 Phases=1 Bus1=406.2 kV=0.23 kW=5.471 PF=0.95 vminpu=0.6 vmaxpu=2 yearly=Shape_23
New Load.LOAD24 Phases=1 Bus1=458.3 kV=0.23 kW=0.232 PF=0.95 vminpu=0.6 vmaxpu=2 yearly=Shape_24
New Load.LOAD25 Phases=1 Bus1=502.1 kV=0.23 kW=0.445 PF=0.95 vminpu=0.6 vmaxpu=2 yearly=Shape_25
New Load.LOAD26 Phases=1 Bus1=522.2 kV=0.23 kW=0.208 PF=0.95 vminpu=0.6 vmaxpu=2 yearly=Shape_26
New Load.LOAD27 Phases=1 Bus1=539.3 kV=0.23 kW=0.204 PF=0.95 vminpu=0.6 vmaxpu=2 yearly=Shape_27
New Load.LOAD28 Phases=1 Bus1=556.3 kV=0.23 kW=0.028 PF=0.95 vminpu=0.6 vmaxpu=2 yearly=Shape_28
New Load.LOAD29 Phases=1 Bus1=562.1 kV=0.23 kW=4.372 PF=0.95 vminpu=0.6 vmaxpu=2 yearly=Shape_29
New Load.LOAD30 Phases=1 Bus1=563.1 kV=0.23 kW=0.313 PF=0.95 vminpu=0.6 vmaxpu=2 yearly=Shape_30
New Load.LOAD31 Phases=1 Bus1=611.1 kV=0.23 kW=0.053 PF=0.95 vminpu=0.6 vmaxpu=2 yearly=Shape_31
New Load.LOAD32 Phases=1 Bus1=614.3 kV=0.23 kW=0.878 PF=0.95 vminpu=0.6 vmaxpu=2 yearly=Shape_32
New Load.LOAD33 Phases=1 Bus1=619.3 kV=0.23 kW=9.584 PF=0.95 vminpu=0.6 vmaxpu=2 yearly=Shape_33
New Load.LOAD34 Phases=1 Bus1=629.1 kV=0.23 kW=0.701 PF=0.95 vminpu=0.6 vmaxpu=2 yearly=Shape_34
New Load.LOAD35 Phases=1 Bus1=639.2 kV=0.23 kW=0.216 PF=0.95 vminpu=0.6 vmaxpu=2 yearly=Shape_35
New Load.LOAD36 Phases=1 Bus1=676.2 kV=0.23 kW=0.266 PF=0.95 vminpu=0.6 vmaxpu=2 yearly=Shape_36
New Load.LOAD37 Phases=1 Bus1=682.2 kV=0.23 kW=0.325 PF=0.95 vminpu=0.6 vmaxpu=2 yearly=Shape_37
New Load.LOAD38 Phases=1 Bus1=688.2 kV=0.23 kW=0.769 PF=0.95 vminpu=0.6 vmaxpu=2 yearly=Shape_38
New Load.LOAD39 Phases=1 Bus1=701.3 kV=0.23 kW=0.048 PF=0.95 vminpu=0.6 vmaxpu=2 yearly=Shape_39
New Load.LOAD40 Phases=1 Bus1=702.2 kV=0.23 kW=0.043 PF=0.95 vminpu=0.6 vmaxpu=2 yearly=Shape_40
New Load.LOAD41 Phases=1 Bus1=755.2 kV=0.23 kW=0.648 PF=0.95 vminpu=0.6 vmaxpu=2 yearly=Shape_41
New Load.LOAD42 Phases=1 Bus1=778.3 kV=0.23 kW=0.424 PF=0.95 vminpu=0.6 vmaxpu=2 yearly=Shape_42
New Load.LOAD43 Phases=1 Bus1=780.3 kV=0.23 kW=0.24 PF=0.95 vminpu=0.6 vmaxpu=2 yearly=Shape_43
New Load.LOAD44 Phases=1 Bus1=785.2 kV=0.23 kW=0.029 PF=0.95 vminpu=0.6 vmaxpu=2 yearly=Shape_44
New Load.LOAD45 Phases=1 Bus1=813.2 kV=0.23 kW=0.528 PF=0.95 vminpu=0.6 vmaxpu=2 yearly=Shape_45
New Load.LOAD46 Phases=1 Bus1=817.1 kV=0.23 kW=0.465 PF=0.95 vminpu=0.6 vmaxpu=2 yearly=Shape_46
New Load.LOAD47 Phases=1 Bus1=835.3 kV=0.23 kW=0.045 PF=0.95 vminpu=0.6 vmaxpu=2 yearly=Shape_47
New Load.LOAD48 Phases=1 Bus1=860.1 kV=0.23 kW=0.046 PF=0.95 vminpu=0.6 vmaxpu=2 yearly=Shape_48
New Load.LOAD49 Phases=1 Bus1=861.1 kV=0.23 kW=0.256 PF=0.95 vminpu=0.6 vmaxpu=2 yearly=Shape_49
New Load.LOAD50 Phases=1 Bus1=886.2 kV=0.23 kW=0.448 PF=0.95 vminpu=0.6 vmaxpu=2 yearly=Shape_50
New Load.LOAD51 Phases=1 Bus1=896.1 kV=0.23 kW=3.247 PF=0.95 vminpu=0.6 vmaxpu=2 yearly=Shape_51
New Load.LOAD52 Phases=1 Bus1=898.1 kV=0.23 kW=0.229 PF=0.95 vminpu=0.6 vmaxpu=2 yearly=Shape_52
New Load.LOAD53 Phases=1 Bus1=899.2 kV=0.23 kW=2.415 PF=0.95 vminpu=0.6 vmaxpu=2 yearly=Shape_53
New Load.LOAD54 Phases=1 Bus1=900.1 kV=0.23 kW=0.219 PF=0.95 vminpu=0.6 vmaxpu=2 yearly=Shape_54
New Load.LOAD55 Phases=1 Bus1=906.1 kV=0.23 kW=0.601 PF=0.95 vminpu=0.6 vmaxpu=2 yearly=Shape_55

New Load.LOAD56 Phases=1 Bus1=34.2 kV=0.23 kW=0.387 PF=0.95 vminpu=0.6 vmaxpu=2 yearly=Shape_56
New Load.LOAD57 Phases=1 Bus1=47.3 kV=0.23 kW=0.694 PF=0.95 vminpu=0.6 vmaxpu=2 yearly=Shape_57
New Load.LOAD58 Phases=1 Bus1=70.2 kV=0.23 kW=0.054 PF=0.95 vminpu=0.6 vmaxpu=2 yearly=Shape_58
New Load.LOAD59 Phases=1 Bus1=73.2 kV=0.23 kW=0.286 PF=0.95 vminpu=0.6 vmaxpu=2 yearly=Shape_59
New Load.LOAD60 Phases=1 Bus1=74.2 kV=0.23 kW=0.035 PF=0.95 vminpu=0.6 vmaxpu=2 yearly=Shape_60
New Load.LOAD61 Phases=1 Bus1=83.3 kV=0.23 kW=0.277 PF=0.95 vminpu=0.6 vmaxpu=2 yearly=Shape_61
New Load.LOAD62 Phases=1 Bus1=178.3 kV=0.23 kW=2.606 PF=0.95 vminpu=0.6 vmaxpu=2 yearly=Shape_62
New Load.LOAD63 Phases=1 Bus1=208.1 kV=0.23 kW=0.55 PF=0.95 vminpu=0.6 vmaxpu=2 yearly=Shape_63
New Load.LOAD64 Phases=1 Bus1=225.2 kV=0.23 kW=4.888 PF=0.95 vminpu=0.6 vmaxpu=2 yearly=Shape_64
New Load.LOAD65 Phases=1 Bus1=248.3 kV=0.23 kW=0.057 PF=0.95 vminpu=0.6 vmaxpu=2 yearly=Shape_65
New Load.LOAD66 Phases=1 Bus1=249.3 kV=0.23 kW=0.347 PF=0.95 vminpu=0.6 vmaxpu=2 yearly=Shape_66
New Load.LOAD67 Phases=1 Bus1=264.1 kV=0.23 kW=0.142 PF=0.95 vminpu=0.6 vmaxpu=2 yearly=Shape_67
New Load.LOAD68 Phases=1 Bus1=276.3 kV=0.23 kW=0.56 PF=0.95 vminpu=0.6 vmaxpu=2 yearly=Shape_68
New Load.LOAD69 Phases=1 Bus1=289.2 kV=0.23 kW=0.171 PF=0.95 vminpu=0.6 vmaxpu=2 yearly=Shape_69
New Load.LOAD70 Phases=1 Bus1=314.3 kV=0.23 kW=0.223 PF=0.95 vminpu=0.6 vmaxpu=2 yearly=Shape_70
New Load.LOAD71 Phases=1 Bus1=320.1 kV=0.23 kW=0.55 PF=0.95 vminpu=0.6 vmaxpu=2 yearly=Shape_71
New Load.LOAD72 Phases=1 Bus1=327.1 kV=0.23 kW=0.534 PF=0.95 vminpu=0.6 vmaxpu=2 yearly=Shape_72
New Load.LOAD73 Phases=1 Bus1=337.1 kV=0.23 kW=0.21 PF=0.95 vminpu=0.6 vmaxpu=2 yearly=Shape_73
New Load.LOAD74 Phases=1 Bus1=342.1 kV=0.23 kW=0.514 PF=0.95 vminpu=0.6 vmaxpu=2 yearly=Shape_74
New Load.LOAD75 Phases=1 Bus1=349.2 kV=0.23 kW=0.485 PF=0.95 vminpu=0.6 vmaxpu=2 yearly=Shape_75
New Load.LOAD76 Phases=1 Bus1=387.2 kV=0.23 kW=0.435 PF=0.95 vminpu=0.6 vmaxpu=2 yearly=Shape_76
New Load.LOAD77 Phases=1 Bus1=388.2 kV=0.23 kW=0.054 PF=0.95 vminpu=0.6 vmaxpu=2 yearly=Shape_77
New Load.LOAD78 Phases=1 Bus1=406.3 kV=0.23 kW=5.471 PF=0.95 vminpu=0.6 vmaxpu=2 yearly=Shape_78
New Load.LOAD79 Phases=1 Bus1=458.1 kV=0.23 kW=0.232 PF=0.95 vminpu=0.6 vmaxpu=2 yearly=Shape_79
New Load.LOAD80 Phases=1 Bus1=502.2 kV=0.23 kW=0.445 PF=0.95 vminpu=0.6 vmaxpu=2 yearly=Shape_80
New Load.LOAD81 Phases=1 Bus1=522.3 kV=0.23 kW=0.208 PF=0.95 vminpu=0.6 vmaxpu=2 yearly=Shape_81
New Load.LOAD82 Phases=1 Bus1=539.1 kV=0.23 kW=0.204 PF=0.95 vminpu=0.6 vmaxpu=2 yearly=Shape_82
New Load.LOAD83 Phases=1 Bus1=556.1 kV=0.23 kW=0.028 PF=0.95 vminpu=0.6 vmaxpu=2 yearly=Shape_83
New Load.LOAD84 Phases=1 Bus1=562.2 kV=0.23 kW=4.372 PF=0.95 vminpu=0.6 vmaxpu=2 yearly=Shape_84
New Load.LOAD85 Phases=1 Bus1=563.2 kV=0.23 kW=0.313 PF=0.95 vminpu=0.6 vmaxpu=2 yearly=Shape_85
New Load.LOAD86 Phases=1 Bus1=611.2 kV=0.23 kW=0.053 PF=0.95 vminpu=0.6 vmaxpu=2 yearly=Shape_86
New Load.LOAD87 Phases=1 Bus1=614.1 kV=0.23 kW=0.878 PF=0.95 vminpu=0.6 vmaxpu=2 yearly=Shape_87
New Load.LOAD88 Phases=1 Bus1=619.1 kV=0.23 kW=9.584 PF=0.95 vminpu=0.6 vmaxpu=2 yearly=Shape_88
New Load.LOAD89 Phases=1 Bus1=629.2 kV=0.23 kW=0.701 PF=0.95 vminpu=0.6 vmaxpu=2 yearly=Shape_89
New Load.LOAD90 Phases=1 Bus1=639.3 kV=0.23 kW=0.216 PF=0.95 vminpu=0.6 vmaxpu=2 yearly=Shape_90
New Load.LOAD91 Phases=1 Bus1=676.3 kV=0.23 kW=0.266 PF=0.95 vminpu=0.6 vmaxpu=2 yearly=Shape_91
New Load.LOAD92 Phases=1 Bus1=682.3 kV=0.23 kW=0.325 PF=0.95 vminpu=0.6 vmaxpu=2 yearly=Shape_92
New Load.LOAD93 Phases=1 Bus1=688.3 kV=0.23 kW=0.769 PF=0.95 vminpu=0.6 vmaxpu=2 yearly=Shape_93
New Load.LOAD94 Phases=1 Bus1=701.1 kV=0.23 kW=0.048 PF=0.95 vminpu=0.6 vmaxpu=2 yearly=Shape_94
New Load.LOAD95 Phases=1 Bus1=702.3 kV=0.23 kW=0.043 PF=0.95 vminpu=0.6 vmaxpu=2 yearly=Shape_95
New Load.LOAD96 Phases=1 Bus1=755.3 kV=0.23 kW=0.648 PF=0.95 vminpu=0.6 vmaxpu=2 yearly=Shape_96
New Load.LOAD97 Phases=1 Bus1=778.1 kV=0.23 kW=0.424 PF=0.95 vminpu=0.6 vmaxpu=2 yearly=Shape_97
New Load.LOAD98 Phases=1 Bus1=780.1 kV=0.23 kW=0.24 PF=0.95 vminpu=0.6 vmaxpu=2 yearly=Shape_98
New Load.LOAD99 Phases=1 Bus1=785.3 kV=0.23 kW=0.029 PF=0.95 vminpu=0.6 vmaxpu=2 yearly=Shape_99
New Load.LOAD100 Phases=1 Bus1=813.3 kV=0.23 kW=0.528 PF=0.95 vminpu=0.6 vmaxpu=2 yearly=Shape_100
New Load.LOAD101 Phases=1 Bus1=817.2 kV=0.23 kW=0.465 PF=0.95 vminpu=0.6 vmaxpu=2 yearly=Shape_101
New Load.LOAD102 Phases=1 Bus1=835.1 kV=0.23 kW=0.045 PF=0.95 vminpu=0.6 vmaxpu=2 yearly=Shape_102
New Load.LOAD103 Phases=1 Bus1=860.2 kV=0.23 kW=0.046 PF=0.95 vminpu=0.6 vmaxpu=2 yearly=Shape_103
New Load.LOAD104 Phases=1 Bus1=861.2 kV=0.23 kW=0.256 PF=0.95 vminpu=0.6 vmaxpu=2 yearly=Shape_104
New Load.LOAD105 Phases=1 Bus1=886.3 kV=0.23 kW=0.448 PF=0.95 vminpu=0.6 vmaxpu=2 yearly=Shape_105
New Load.LOAD106 Phases=1 Bus1=896.2 kV=0.23 kW=3.247 PF=0.95 vminpu=0.6 vmaxpu=2 yearly=Shape_106
New Load.LOAD107 Phases=1 Bus1=898.2 kV=0.23 kW=0.229 PF=0.95 vminpu=0.6 vmaxpu=2 yearly=Shape_107
New Load.LOAD108 Phases=1 Bus1=899.3 kV=0.23 kW=2.415 PF=0.95 vminpu=0.6 vmaxpu=2 yearly=Shape_108
New Load.LOAD109 Phases=1 Bus1=900.2 kV=0.23 kW=0.219 PF=0.95 vminpu=0.6 vmaxpu=2 yearly=Shape_109
New Load.LOAD110 Phases=1 Bus1=906.2 kV=0.23 kW=0.601 PF=0.95 vminpu=0.6 vmaxpu=2 yearly=Shape_110



New Load.LOAD111 Phases=1 Bus1=34.3 kV=0.23 kW=0.387 PF=0.95 vminpu=0.6 vmaxpu=2 yearly=Shape_111
New Load.LOAD112 Phases=1 Bus1=47.1 kV=0.23 kW=0.694 PF=0.95 vminpu=0.6 vmaxpu=2 yearly=Shape_112
New Load.LOAD113 Phases=1 Bus1=70.3 kV=0.23 kW=0.054 PF=0.95 vminpu=0.6 vmaxpu=2 yearly=Shape_113
New Load.LOAD114 Phases=1 Bus1=73.3 kV=0.23 kW=0.286 PF=0.95 vminpu=0.6 vmaxpu=2 yearly=Shape_114
New Load.LOAD115 Phases=1 Bus1=74.3 kV=0.23 kW=0.035 PF=0.95 vminpu=0.6 vmaxpu=2 yearly=Shape_115
New Load.LOAD116 Phases=1 Bus1=83.1 kV=0.23 kW=0.277 PF=0.95 vminpu=0.6 vmaxpu=2 yearly=Shape_116
New Load.LOAD117 Phases=1 Bus1=178.1 kV=0.23 kW=2.606 PF=0.95 vminpu=0.6 vmaxpu=2 yearly=Shape_117
New Load.LOAD118 Phases=1 Bus1=208.2 kV=0.23 kW=0.55 PF=0.95 vminpu=0.6 vmaxpu=2 yearly=Shape_118
New Load.LOAD119 Phases=1 Bus1=225.3 kV=0.23 kW=4.888 PF=0.95 vminpu=0.6 vmaxpu=2 yearly=Shape_119
New Load.LOAD120 Phases=1 Bus1=248.1 kV=0.23 kW=0.057 PF=0.95 vminpu=0.6 vmaxpu=2 yearly=Shape_120
New Load.LOAD121 Phases=1 Bus1=249.1 kV=0.23 kW=0.347 PF=0.95 vminpu=0.6 vmaxpu=2 yearly=Shape_121
New Load.LOAD122 Phases=1 Bus1=264.2 kV=0.23 kW=0.142 PF=0.95 vminpu=0.6 vmaxpu=2 yearly=Shape_122
New Load.LOAD123 Phases=1 Bus1=276.1 kV=0.23 kW=0.56 PF=0.95 vminpu=0.6 vmaxpu=2 yearly=Shape_123
New Load.LOAD124 Phases=1 Bus1=289.3 kV=0.23 kW=0.171 PF=0.95 vminpu=0.6 vmaxpu=2 yearly=Shape_124
New Load.LOAD125 Phases=1 Bus1=314.1 kV=0.23 kW=0.223 PF=0.95 vminpu=0.6 vmaxpu=2 yearly=Shape_125
New Load.LOAD126 Phases=1 Bus1=320.2 kV=0.23 kW=0.55 PF=0.95 vminpu=0.6 vmaxpu=2 yearly=Shape_126
New Load.LOAD127 Phases=1 Bus1=327.2 kV=0.23 kW=0.534 PF=0.95 vminpu=0.6 vmaxpu=2 yearly=Shape_127
New Load.LOAD128 Phases=1 Bus1=337.2 kV=0.23 kW=0.21 PF=0.95 vminpu=0.6 vmaxpu=2 yearly=Shape_128
New Load.LOAD129 Phases=1 Bus1=342.2 kV=0.23 kW=0.514 PF=0.95 vminpu=0.6 vmaxpu=2 yearly=Shape_129
New Load.LOAD130 Phases=1 Bus1=349.3 kV=0.23 kW=0.485 PF=0.95 vminpu=0.6 vmaxpu=2 yearly=Shape_130
New Load.LOAD131 Phases=1 Bus1=387.3 kV=0.23 kW=0.435 PF=0.95 vminpu=0.6 vmaxpu=2 yearly=Shape_131
New Load.LOAD132 Phases=1 Bus1=388.3 kV=0.23 kW=0.054 PF=0.95 vminpu=0.6 vmaxpu=2 yearly=Shape_132
New Load.LOAD133 Phases=1 Bus1=406.1 kV=0.23 kW=5.471 PF=0.95 vminpu=0.6 vmaxpu=2 yearly=Shape_133
New Load.LOAD134 Phases=1 Bus1=458.2 kV=0.23 kW=0.232 PF=0.95 vminpu=0.6 vmaxpu=2 yearly=Shape_134
New Load.LOAD135 Phases=1 Bus1=502.3 kV=0.23 kW=0.445 PF=0.95 vminpu=0.6 vmaxpu=2 yearly=Shape_135
New Load.LOAD136 Phases=1 Bus1=522.1 kV=0.23 kW=0.208 PF=0.95 vminpu=0.6 vmaxpu=2 yearly=Shape_136
New Load.LOAD137 Phases=1 Bus1=539.2 kV=0.23 kW=0.204 PF=0.95 vminpu=0.6 vmaxpu=2 yearly=Shape_137
New Load.LOAD138 Phases=1 Bus1=556.2 kV=0.23 kW=0.028 PF=0.95 vminpu=0.6 vmaxpu=2 yearly=Shape_138
New Load.LOAD139 Phases=1 Bus1=562.3 kV=0.23 kW=4.372 PF=0.95 vminpu=0.6 vmaxpu=2 yearly=Shape_139
New Load.LOAD140 Phases=1 Bus1=563.3 kV=0.23 kW=0.313 PF=0.95 vminpu=0.6 vmaxpu=2 yearly=Shape_140
New Load.LOAD141 Phases=1 Bus1=611.3 kV=0.23 kW=0.053 PF=0.95 vminpu=0.6 vmaxpu=2 yearly=Shape_141
New Load.LOAD142 Phases=1 Bus1=614.2 kV=0.23 kW=0.878 PF=0.95 vminpu=0.6 vmaxpu=2 yearly=Shape_142
New Load.LOAD143 Phases=1 Bus1=619.2 kV=0.23 kW=9.584 PF=0.95 vminpu=0.6 vmaxpu=2 yearly=Shape_143
New Load.LOAD144 Phases=1 Bus1=629.3 kV=0.23 kW=0.701 PF=0.95 vminpu=0.6 vmaxpu=2 yearly=Shape_144
New Load.LOAD145 Phases=1 Bus1=639.1 kV=0.23 kW=0.216 PF=0.95 vminpu=0.6 vmaxpu=2 yearly=Shape_145
New Load.LOAD146 Phases=1 Bus1=676.1 kV=0.23 kW=0.266 PF=0.95 vminpu=0.6 vmaxpu=2 yearly=Shape_146
New Load.LOAD147 Phases=1 Bus1=682.1 kV=0.23 kW=0.325 PF=0.95 vminpu=0.6 vmaxpu=2 yearly=Shape_147
New Load.LOAD148 Phases=1 Bus1=688.1 kV=0.23 kW=0.769 PF=0.95 vminpu=0.6 vmaxpu=2 yearly=Shape_148
New Load.LOAD149 Phases=1 Bus1=701.2 kV=0.23 kW=0.048 PF=0.95 vminpu=0.6 vmaxpu=2 yearly=Shape_149
New Load.LOAD150 Phases=1 Bus1=702.1 kV=0.23 kW=0.043 PF=0.95 vminpu=0.6 vmaxpu=2 yearly=Shape_150
New Load.LOAD151 Phases=1 Bus1=755.1 kV=0.23 kW=0.648 PF=0.95 vminpu=0.6 vmaxpu=2 yearly=Shape_151
New Load.LOAD152 Phases=1 Bus1=778.2 kV=0.23 kW=0.424 PF=0.95 vminpu=0.6 vmaxpu=2 yearly=Shape_152
New Load.LOAD153 Phases=1 Bus1=780.2 kV=0.23 kW=0.24 PF=0.95 vminpu=0.6 vmaxpu=2 yearly=Shape_153
New Load.LOAD154 Phases=1 Bus1=785.1 kV=0.23 kW=0.029 PF=0.95 vminpu=0.6 vmaxpu=2 yearly=Shape_154
New Load.LOAD155 Phases=1 Bus1=813.1 kV=0.23 kW=0.528 PF=0.95 vminpu=0.6 vmaxpu=2 yearly=Shape_155
New Load.LOAD156 Phases=1 Bus1=817.3 kV=0.23 kW=0.465 PF=0.95 vminpu=0.6 vmaxpu=2 yearly=Shape_156
New Load.LOAD157 Phases=1 Bus1=835.2 kV=0.23 kW=0.045 PF=0.95 vminpu=0.6 vmaxpu=2 yearly=Shape_157
New Load.LOAD158 Phases=1 Bus1=860.3 kV=0.23 kW=0.046 PF=0.95 vminpu=0.6 vmaxpu=2 yearly=Shape_158
New Load.LOAD159 Phases=1 Bus1=861.3 kV=0.23 kW=0.256 PF=0.95 vminpu=0.6 vmaxpu=2 yearly=Shape_159
New Load.LOAD160 Phases=1 Bus1=886.1 kV=0.23 kW=0.448 PF=0.95 vminpu=0.6 vmaxpu=2 yearly=Shape_160
New Load.LOAD161 Phases=1 Bus1=896.3 kV=0.23 kW=3.247 PF=0.95 vminpu=0.6 vmaxpu=2 yearly=Shape_161
New Load.LOAD162 Phases=1 Bus1=898.3 kV=0.23 kW=0.229 PF=0.95 vminpu=0.6 vmaxpu=2 yearly=Shape_162
New Load.LOAD163 Phases=1 Bus1=899.1 kV=0.23 kW=2.415 PF=0.95 vminpu=0.6 vmaxpu=2 yearly=Shape_163
New Load.LOAD164 Phases=1 Bus1=900.3 kV=0.23 kW=0.219 PF=0.95 vminpu=0.6 vmaxpu=2 yearly=Shape_164
New Load.LOAD165 Phases=1 Bus1=906.3 kV=0.23 kW=0.601 PF=0.95 vminpu=0.6 vmaxpu=2 yearly=Shape_165
